<?xml version="1.0" ?>
<routes>
    <vType id="car" accel="2.6" decel="4.5" sigma="0.5" length="5" maxSpeed="70"/>
    <vType id="bus" accel="1.2" decel="4.0" sigma="0.5" length="12" maxSpeed="50"/>
    <vType id="truck" accel="1.0" decel="4.0" sigma="0.5" length="8" maxSpeed="60"/>
    <vehicle id="0" type="car" depart="0.00">
        <route edges="E1E0 E0D0 D0D1"/>
    </vehicle>
    <vehicle id="1" type="car" depart="2.00">
        <route edges="E2E1 E1D1"/>
    </vehicle>
    <vehicle id="2" type="car" depart="4.00">
        <route edges="A0A1 A1A2"/>
    </vehicle>
    <vehicle id="3" type="car" depart="6.00">
        <route edges="A0A1 A1A2 A2B2 B2C2 C2B2 B2B1 B1A1"/>
    </vehicle>
    <vehicle id="4" type="car" depart="8.00">
        <route edges="A1A2 A2B2 B2B1 B1C1"/>
    </vehicle>
    <vehicle id="5" type="car" depart="10.00">
        <route edges="E1E0 E0D0 D0D1"/>
    </vehicle>
    <vehicle id="6" type="car" depart="12.00">
        <route edges="B0A0 A0A1 A1A2 A2B2"/>
    </vehicle>
    <vehicle id="7" type="car" depart="14.00">
        <route edges="E0D0 D0C0 C0B0 B0C0"/>
    </vehicle>
    <vehicle id="8" type="car" depart="16.00">
        <route edges="D1D0 D0D1 D1D2 D2C2 C2B2 B2B1 B1C1"/>
    </vehicle>
    <vehicle id="9" type="bus" depart="18.00">
        <route edges="D0C0 C0D0 D0D1"/>
    </vehicle>
    <vehicle id="10" type="car" depart="20.00">
        <route edges="B0C0 C0B0 B0A0 A0A1"/>
    </vehicle>
    <vehicle id="11" type="car" depart="22.00">
        <route edges="E1D1 D1E1 E1E0"/>
    </vehicle>
    <vehicle id="12" type="bus" depart="24.00">
        <route edges="E1D1 D1E1 E1E0"/>
    </vehicle>
    <vehicle id="13" type="car" depart="26.00">
        <route edges="D1D2 D2D1 D1D0 D0E0 E0E1 E1E0 E0D0"/>
    </vehicle>
    <vehicle id="14" type="car" depart="28.00">
        <route edges="C2C1 C1C0 C0D0 D0D1 D1D2 D2C2 C2B2"/>
    </vehicle>
    <vehicle id="15" type="truck" depart="30.00">
        <route edges="D0E0 E0E1 E1E0"/>
    </vehicle>
    <vehicle id="16" type="car" depart="32.00">
        <route edges="A2A1 A1A0 A0B0 B0A0 A0A1 A1A0"/>
    </vehicle>
    <vehicle id="17" type="car" depart="34.00">
        <route edges="A1B1 B1B2 B2A2 A2A1"/>
    </vehicle>
    <vehicle id="18" type="car" depart="36.00">
        <route edges="C1B1 B1B2"/>
    </vehicle>
    <vehicle id="19" type="car" depart="38.00">
        <route edges="C2D2 D2D1"/>
    </vehicle>
    <vehicle id="20" type="bus" depart="40.00">
        <route edges="C1C2 C2D2 D2C2 C2B2 B2B1 B1B0"/>
    </vehicle>
    <vehicle id="21" type="bus" depart="42.00">
        <route edges="E0D0 D0C0 C0B0 B0C0"/>
    </vehicle>
    <vehicle id="22" type="bus" depart="44.00">
        <route edges="B2B1 B1B0"/>
    </vehicle>
    <vehicle id="23" type="car" depart="46.00">
        <route edges="D0D1 D1E1 E1E0 E0D0 D0C0 C0D0 D0E0"/>
    </vehicle>
    <vehicle id="24" type="bus" depart="48.00">
        <route edges="D2D1 D1D0"/>
    </vehicle>
    <vehicle id="25" type="car" depart="50.00">
        <route edges="E0E1 E1E2 E2D2 D2D1"/>
    </vehicle>
    <vehicle id="26" type="car" depart="52.00">
        <route edges="D1D0 D0D1 D1D2 D2C2 C2B2 B2B1 B1C1"/>
    </vehicle>
    <vehicle id="27" type="bus" depart="54.00">
        <route edges="B2C2 C2C1 C1D1 D1D0 D0E0 E0E1"/>
    </vehicle>
    <vehicle id="28" type="truck" depart="56.00">
        <route edges="A0B0 B0A0"/>
    </vehicle>
    <vehicle id="29" type="truck" depart="58.00">
        <route edges="B0B1 B1C1 C1D1 D1C1 C1B1"/>
    </vehicle>
    <vehicle id="30" type="car" depart="60.00">
        <route edges="D0E0 E0E1 E1E0 E0D0 D0C0"/>
    </vehicle>
    <vehicle id="31" type="car" depart="62.00">
        <route edges="E0E1 E1E0 E0D0 D0C0 C0D0 D0C0 C0B0"/>
    </vehicle>
    <vehicle id="32" type="car" depart="64.00">
        <route edges="E0D0 D0C0 C0B0 B0C0"/>
    </vehicle>
    <vehicle id="33" type="car" depart="66.00">
        <route edges="C2D2 D2D1"/>
    </vehicle>
    <vehicle id="34" type="bus" depart="68.00">
        <route edges="C2D2 D2D1"/>
    </vehicle>
    <vehicle id="35" type="car" depart="70.00">
        <route edges="E2E1 E1D1 D1C1 C1B1 B1A1"/>
    </vehicle>
    <vehicle id="36" type="car" depart="72.00">
        <route edges="A1B1 B1B2 B2B1 B1C1 C1C2"/>
    </vehicle>
    <vehicle id="37" type="car" depart="74.00">
        <route edges="E0E1 E1E0 E0D0 D0E0 E0E1"/>
    </vehicle>
    <vehicle id="38" type="bus" depart="76.00">
        <route edges="A1A0 A0B0 B0C0"/>
    </vehicle>
    <vehicle id="39" type="car" depart="78.00">
        <route edges="E1E0 E0D0 D0D1"/>
    </vehicle>
    <vehicle id="40" type="bus" depart="80.00">
        <route edges="B1B0 B0A0 A0A1 A1A2 A2B2 B2C2 C2D2"/>
    </vehicle>
    <vehicle id="41" type="car" depart="82.00">
        <route edges="B1C1 C1C0 C0B0 B0B1 B1C1"/>
    </vehicle>
    <vehicle id="42" type="car" depart="84.00">
        <route edges="A0A1 A1A2"/>
    </vehicle>
    <vehicle id="43" type="car" depart="86.00">
        <route edges="B1B2 B2A2 A2A1 A1B1 B1C1 C1D1 D1E1"/>
    </vehicle>
    <vehicle id="44" type="bus" depart="88.00">
        <route edges="D2D1 D1D0"/>
    </vehicle>
    <vehicle id="45" type="car" depart="90.00">
        <route edges="A2A1 A1A0 A0B0 B0A0 A0A1 A1A0"/>
    </vehicle>
    <vehicle id="46" type="car" depart="92.00">
        <route edges="D0D1 D1C1 C1B1 B1B2"/>
    </vehicle>
    <vehicle id="47" type="bus" depart="94.00">
        <route edges="C0C1 C1D1"/>
    </vehicle>
    <vehicle id="48" type="truck" depart="96.00">
        <route edges="C1B1 B1B2"/>
    </vehicle>
    <vehicle id="49" type="car" depart="98.00">
        <route edges="E1E0 E0D0 D0D1"/>
    </vehicle>
    <vehicle id="50" type="car" depart="100.00">
        <route edges="B1A1 A1B1"/>
    </vehicle>
    <vehicle id="51" type="car" depart="102.00">
        <route edges="E1E0 E0D0 D0D1"/>
    </vehicle>
    <vehicle id="52" type="bus" depart="104.00">
        <route edges="B2A2 A2A1 A1A0"/>
    </vehicle>
    <vehicle id="53" type="car" depart="106.00">
        <route edges="D2E2 E2E1 E1D1 D1D2 D2E2 E2E1 E1E0"/>
    </vehicle>
    <vehicle id="54" type="car" depart="108.00">
        <route edges="D2C2 C2B2 B2A2 A2A1"/>
    </vehicle>
    <vehicle id="55" type="car" depart="110.00">
        <route edges="B0B1 B1C1 C1D1 D1C1 C1B1"/>
    </vehicle>
    <vehicle id="56" type="car" depart="112.00">
        <route edges="B2B1 B1A1 A1A0 A0B0 B0A0 A0A1 A1A0"/>
    </vehicle>
    <vehicle id="57" type="car" depart="114.00">
        <route edges="D0D1 D1E1 E1E0 E0D0 D0C0 C0D0 D0E0"/>
    </vehicle>
    <vehicle id="58" type="car" depart="116.00">
        <route edges="D2E2 E2E1 E1D1 D1E1 E1E0 E0D0 D0C0"/>
    </vehicle>
    <vehicle id="59" type="car" depart="118.00">
        <route edges="B1C1 C1C0"/>
    </vehicle>
    <vehicle id="60" type="car" depart="120.00">
        <route edges="D0E0 E0E1 E1E0 E0D0 D0C0"/>
    </vehicle>
    <vehicle id="61" type="car" depart="122.00">
        <route edges="B0A0 A0A1 A1A2 A2B2"/>
    </vehicle>
    <vehicle id="62" type="car" depart="124.00">
        <route edges="D0C0 C0B0 B0C0 C0D0 D0C0"/>
    </vehicle>
    <vehicle id="63" type="car" depart="126.00">
        <route edges="E2E1 E1D1 D1C1 C1B1 B1A1"/>
    </vehicle>
    <vehicle id="64" type="car" depart="128.00">
        <route edges="B2B1 B1B0"/>
    </vehicle>
    <vehicle id="65" type="car" depart="130.00">
        <route edges="D0E0 E0E1 E1E0 E0D0 D0C0"/>
    </vehicle>
    <vehicle id="66" type="car" depart="132.00">
        <route edges="A1A0 A0B0"/>
    </vehicle>
    <vehicle id="67" type="car" depart="134.00">
        <route edges="E1D1 D1E1 E1E0"/>
    </vehicle>
    <vehicle id="68" type="car" depart="136.00">
        <route edges="E1E2 E2D2"/>
    </vehicle>
    <vehicle id="69" type="truck" depart="138.00">
        <route edges="B1A1 A1B1"/>
    </vehicle>
    <vehicle id="70" type="car" depart="140.00">
        <route edges="C0B0 B0C0 C0D0 D0C0 C0C1"/>
    </vehicle>
    <vehicle id="71" type="car" depart="142.00">
        <route edges="B2B1 B1A1 A1A0 A0B0 B0A0 A0A1 A1A0"/>
    </vehicle>
    <vehicle id="72" type="car" depart="144.00">
        <route edges="D1D2 D2D1 D1D0 D0E0 E0E1 E1E0 E0D0"/>
    </vehicle>
    <vehicle id="73" type="bus" depart="146.00">
        <route edges="E1E0 E0D0 D0E0"/>
    </vehicle>
    <vehicle id="74" type="car" depart="148.00">
        <route edges="B0A0 A0A1 A1A2 A2B2"/>
    </vehicle>
    <vehicle id="75" type="car" depart="150.00">
        <route edges="A2B2 B2B1 B1A1 A1B1"/>
    </vehicle>
    <vehicle id="76" type="car" depart="152.00">
        <route edges="A0B0 B0B1"/>
    </vehicle>
    <vehicle id="77" type="car" depart="154.00">
        <route edges="B2C2 C2D2 D2E2 E2E1 E1E0 E0D0"/>
    </vehicle>
    <vehicle id="78" type="car" depart="156.00">
        <route edges="C2C1 C1C0 C0D0 D0D1 D1D2 D2C2 C2B2"/>
    </vehicle>
    <vehicle id="79" type="truck" depart="158.00">
        <route edges="A0A1 A1A2 A2B2 B2C2 C2B2 B2B1 B1A1"/>
    </vehicle>
    <vehicle id="80" type="bus" depart="160.00">
        <route edges="C0C1 C1D1"/>
    </vehicle>
    <vehicle id="81" type="car" depart="162.00">
        <route edges="D1D2 D2D1 D1D0 D0E0 E0E1 E1E0 E0D0"/>
    </vehicle>
    <vehicle id="82" type="car" depart="164.00">
        <route edges="D0E0 E0E1 E1E2"/>
    </vehicle>
    <vehicle id="83" type="car" depart="166.00">
        <route edges="A1B1 B1B2 B2B1 B1C1 C1C2"/>
    </vehicle>
    <vehicle id="84" type="car" depart="168.00">
        <route edges="B1C1 C1C0"/>
    </vehicle>
    <vehicle id="85" type="truck" depart="170.00">
        <route edges="C0B0 B0A0 A0A1 A1A2 A2B2 B2A2 A2A1"/>
    </vehicle>
    <vehicle id="86" type="car" depart="172.00">
        <route edges="C1D1 D1C1 C1B1 B1A1 A1A0 A0B0 B0C0"/>
    </vehicle>
    <vehicle id="87" type="car" depart="174.00">
        <route edges="A1A0 A0B0 B0C0 C0B0 B0B1 B1C1"/>
    </vehicle>
    <vehicle id="88" type="car" depart="176.00">
        <route edges="A0B0 B0A0"/>
    </vehicle>
    <vehicle id="89" type="bus" depart="178.00">
        <route edges="B2A2 A2A1 A1A2 A2B2 B2B1"/>
    </vehicle>
    <vehicle id="90" type="car" depart="180.00">
        <route edges="C0B0 B0A0 A0A1 A1A2 A2B2 B2A2 A2A1"/>
    </vehicle>
    <vehicle id="91" type="car" depart="181.00">
        <route edges="E2E1 E1D1"/>
    </vehicle>
    <vehicle id="92" type="car" depart="182.00">
        <route edges="D1E1 E1D1"/>
    </vehicle>
    <vehicle id="93" type="bus" depart="183.00">
        <route edges="D0E0 E0E1 E1E0 E0D0 D0C0"/>
    </vehicle>
    <vehicle id="94" type="bus" depart="184.00">
        <route edges="D1D0 D0D1 D1D2 D2C2 C2B2 B2B1 B1C1"/>
    </vehicle>
    <vehicle id="95" type="car" depart="185.00">
        <route edges="C2B2 B2C2 C2D2 D2E2 E2E1 E1E0"/>
    </vehicle>
    <vehicle id="96" type="car" depart="186.00">
        <route edges="B1A1 A1A2 A2B2 B2B1 B1A1 A1A0"/>
    </vehicle>
    <vehicle id="97" type="car" depart="187.00">
        <route edges="B2C2 C2C1 C1D1 D1D0 D0E0 E0E1"/>
    </vehicle>
    <vehicle id="98" type="car" depart="188.00">
        <route edges="E1E0 E0D0 D0D1 D1E1 E1E0 E0D0 D0C0"/>
    </vehicle>
    <vehicle id="99" type="car" depart="189.00">
        <route edges="A0B0 B0B1"/>
    </vehicle>
    <vehicle id="100" type="truck" depart="190.00">
        <route edges="A2B2 B2C2 C2D2 D2E2 E2E1 E1D1"/>
    </vehicle>
    <vehicle id="101" type="bus" depart="191.00">
        <route edges="E0E1 E1E0 E0D0 D0E0 E0E1"/>
    </vehicle>
    <vehicle id="102" type="car" depart="192.00">
        <route edges="D0D1 D1C1 C1B1 B1B2"/>
    </vehicle>
    <vehicle id="103" type="car" depart="193.00">
        <route edges="B2A2 A2A1 A1A2 A2B2 B2B1"/>
    </vehicle>
    <vehicle id="104" type="car" depart="194.00">
        <route edges="D0E0 E0E1 E1E0 E0D0 D0C0"/>
    </vehicle>
    <vehicle id="105" type="car" depart="195.00">
        <route edges="A2A1 A1B1 B1B0 B0A0 A0A1 A1A2 A2B2"/>
    </vehicle>
    <vehicle id="106" type="car" depart="196.00">
        <route edges="E0E1 E1E2 E2D2 D2D1"/>
    </vehicle>
    <vehicle id="107" type="bus" depart="197.00">
        <route edges="C2D2 D2C2"/>
    </vehicle>
    <vehicle id="108" type="car" depart="198.00">
        <route edges="B0A0 A0A1 A1A2 A2B2"/>
    </vehicle>
    <vehicle id="109" type="car" depart="199.00">
        <route edges="A1A2 A2B2 B2B1 B1B2 B2A2 A2A1"/>
    </vehicle>
    <vehicle id="110" type="truck" depart="200.00">
        <route edges="E2D2 D2C2 C2C1 C1D1 D1D2 D2E2 E2E1"/>
    </vehicle>
    <vehicle id="111" type="car" depart="201.00">
        <route edges="D0C0 C0D0 D0D1"/>
    </vehicle>
    <vehicle id="112" type="car" depart="202.00">
        <route edges="C2B2 B2A2"/>
    </vehicle>
    <vehicle id="113" type="car" depart="203.00">
        <route edges="C0B0 B0A0 A0A1 A1A2 A2B2 B2A2 A2A1"/>
    </vehicle>
    <vehicle id="114" type="car" depart="204.00">
        <route edges="E0E1 E1E2 E2D2 D2D1"/>
    </vehicle>
    <vehicle id="115" type="car" depart="205.00">
        <route edges="C0D0 D0C0 C0C1 C1C0 C0C1"/>
    </vehicle>
    <vehicle id="116" type="car" depart="206.00">
        <route edges="A0A1 A1A2"/>
    </vehicle>
    <vehicle id="117" type="car" depart="207.00">
        <route edges="B1C1 C1C0 C0B0 B0B1 B1C1"/>
    </vehicle>
    <vehicle id="118" type="truck" depart="208.00">
        <route edges="C1D1 D1D0 D0C0"/>
    </vehicle>
    <vehicle id="119" type="car" depart="209.00">
        <route edges="D1D0 D0C0 C0B0"/>
    </vehicle>
    <vehicle id="120" type="bus" depart="210.00">
        <route edges="B2C2 C2C1 C1D1 D1D0 D0E0 E0E1"/>
    </vehicle>
    <vehicle id="121" type="car" depart="211.00">
        <route edges="E1D1 D1D0"/>
    </vehicle>
    <vehicle id="122" type="car" depart="212.00">
        <route edges="C2D2 D2C2"/>
    </vehicle>
    <vehicle id="123" type="bus" depart="213.00">
        <route edges="C0B0 B0A0 A0A1 A1A2 A2B2 B2A2 A2A1"/>
    </vehicle>
    <vehicle id="124" type="car" depart="214.00">
        <route edges="D2D1 D1D0"/>
    </vehicle>
    <vehicle id="125" type="car" depart="215.00">
        <route edges="A0A1 A1A2 A2B2 B2C2 C2B2 B2B1 B1A1"/>
    </vehicle>
    <vehicle id="126" type="bus" depart="216.00">
        <route edges="A0B0 B0A0"/>
    </vehicle>
    <vehicle id="127" type="car" depart="217.00">
        <route edges="C0B0 B0A0 A0A1 A1A2 A2B2 B2A2 A2A1"/>
    </vehicle>
    <vehicle id="128" type="car" depart="218.00">
        <route edges="D0C0 C0D0 D0D1"/>
    </vehicle>
    <vehicle id="129" type="car" depart="219.00">
        <route edges="A2A1 A1A2 A2B2 B2A2"/>
    </vehicle>
    <vehicle id="130" type="car" depart="220.00">
        <route edges="E1E2 E2D2 D2D1 D1E1 E1E0 E0D0"/>
    </vehicle>
    <vehicle id="131" type="car" depart="221.00">
        <route edges="B1B0 B0A0 A0A1 A1A2 A2B2 B2C2 C2D2"/>
    </vehicle>
    <vehicle id="132" type="car" depart="222.00">
        <route edges="C1D1 D1D0 D0C0"/>
    </vehicle>
    <vehicle id="133" type="car" depart="223.00">
        <route edges="C0C1 C1D1"/>
    </vehicle>
    <vehicle id="134" type="car" depart="224.00">
        <route edges="B2B1 B1B0"/>
    </vehicle>
    <vehicle id="135" type="car" depart="225.00">
        <route edges="E0E1 E1E0 E0D0 D0E0 E0E1"/>
    </vehicle>
    <vehicle id="136" type="car" depart="226.00">
        <route edges="E2E1 E1E0 E0D0 D0D1 D1D2"/>
    </vehicle>
    <vehicle id="137" type="bus" depart="227.00">
        <route edges="B1B2 B2A2 A2A1 A1B1 B1C1 C1D1 D1E1"/>
    </vehicle>
    <vehicle id="138" type="car" depart="228.00">
        <route edges="A0B0 B0B1"/>
    </vehicle>
    <vehicle id="139" type="car" depart="229.00">
        <route edges="E2E1 E1D1 D1C1 C1B1 B1A1"/>
    </vehicle>
    <vehicle id="140" type="car" depart="230.00">
        <route edges="D2C2 C2B2 B2A2 A2A1"/>
    </vehicle>
    <vehicle id="141" type="car" depart="231.00">
        <route edges="E2E1 E1D1 D1C1 C1B1 B1A1"/>
    </vehicle>
    <vehicle id="142" type="truck" depart="232.00">
        <route edges="B2C2 C2D2 D2E2 E2E1 E1E0 E0D0"/>
    </vehicle>
    <vehicle id="143" type="car" depart="233.00">
        <route edges="D2D1 D1E1 E1E2 E2D2 D2D1 D1E1 E1E0"/>
    </vehicle>
    <vehicle id="144" type="truck" depart="234.00">
        <route edges="E0E1 E1E0 E0D0 D0C0 C0D0 D0C0 C0B0"/>
    </vehicle>
    <vehicle id="145" type="car" depart="235.00">
        <route edges="A2B2 B2B1 B1A1 A1B1"/>
    </vehicle>
    <vehicle id="146" type="bus" depart="236.00">
        <route edges="C0C1 C1D1"/>
    </vehicle>
    <vehicle id="147" type="car" depart="237.00">
        <route edges="A2A1 A1A0 A0B0 B0A0 A0A1 A1A0"/>
    </vehicle>
    <vehicle id="148" type="car" depart="238.00">
        <route edges="A1B1 B1B2 B2A2 A2A1"/>
    </vehicle>
    <vehicle id="149" type="car" depart="239.00">
        <route edges="E2D2 D2E2 E2E1 E1E2"/>
    </vehicle>
    <vehicle id="150" type="bus" depart="240.00">
        <route edges="C1D1 D1C1 C1B1 B1A1 A1A0 A0B0 B0C0"/>
    </vehicle>
    <vehicle id="151" type="car" depart="241.00">
        <route edges="E0E1 E1E0 E0D0 D0E0 E0E1"/>
    </vehicle>
    <vehicle id="152" type="car" depart="242.00">
        <route edges="B0B1 B1C1 C1C2 C2D2 D2D1 D1D2 D2E2"/>
    </vehicle>
    <vehicle id="153" type="car" depart="243.00">
        <route edges="B0B1 B1C1 C1D1 D1C1 C1B1"/>
    </vehicle>
    <vehicle id="154" type="car" depart="244.00">
        <route edges="B0B1 B1C1 C1D1 D1C1 C1B1"/>
    </vehicle>
    <vehicle id="155" type="car" depart="245.00">
        <route edges="A2B2 B2B1 B1A1 A1B1"/>
    </vehicle>
    <vehicle id="156" type="car" depart="246.00">
        <route edges="B1C1 C1C0 C0B0 B0B1 B1C1"/>
    </vehicle>
    <vehicle id="157" type="bus" depart="247.00">
        <route edges="D1D2 D2D1 D1D0 D0E0 E0E1 E1E0 E0D0"/>
    </vehicle>
    <vehicle id="158" type="car" depart="248.00">
        <route edges="B2B1 B1B2 B2B1 B1B2"/>
    </vehicle>
    <vehicle id="159" type="bus" depart="249.00">
        <route edges="A0B0 B0A0"/>
    </vehicle>
    <vehicle id="160" type="car" depart="250.00">
        <route edges="D1E1 E1D1"/>
    </vehicle>
    <vehicle id="161" type="car" depart="251.00">
        <route edges="A1A0 A0B0"/>
    </vehicle>
    <vehicle id="162" type="car" depart="252.00">
        <route edges="B0A0 A0A1 A1A2 A2B2"/>
    </vehicle>
    <vehicle id="163" type="bus" depart="253.00">
        <route edges="B2C2 C2C1 C1D1 D1D0 D0E0 E0E1"/>
    </vehicle>
    <vehicle id="164" type="car" depart="254.00">
        <route edges="E1E2 E2D2"/>
    </vehicle>
    <vehicle id="165" type="car" depart="255.00">
        <route edges="A2A1 A1A2 A2B2 B2A2"/>
    </vehicle>
    <vehicle id="166" type="car" depart="256.00">
        <route edges="B2B1 B1B2 B2B1 B1B2"/>
    </vehicle>
    <vehicle id="167" type="car" depart="257.00">
        <route edges="B1A1 A1A2 A2B2 B2B1 B1A1 A1A0"/>
    </vehicle>
    <vehicle id="168" type="car" depart="258.00">
        <route edges="E1E2 E2D2"/>
    </vehicle>
    <vehicle id="169" type="car" depart="259.00">
        <route edges="B2C2 C2C1 C1D1 D1D0 D0E0 E0E1"/>
    </vehicle>
    <vehicle id="170" type="car" depart="260.00">
        <route edges="B1A1 A1A2 A2B2 B2B1 B1A1 A1A0"/>
    </vehicle>
    <vehicle id="171" type="car" depart="261.00">
        <route edges="A1B1 B1B2 B2B1 B1C1 C1C2"/>
    </vehicle>
    <vehicle id="172" type="bus" depart="262.00">
        <route edges="C0B0 B0C0 C0D0 D0C0 C0C1"/>
    </vehicle>
    <vehicle id="173" type="bus" depart="263.00">
        <route edges="E2D2 D2E2 E2E1 E1E2"/>
    </vehicle>
    <vehicle id="174" type="car" depart="264.00">
        <route edges="B1C1 C1C0 C0B0 B0B1 B1C1"/>
    </vehicle>
    <vehicle id="175" type="car" depart="265.00">
        <route edges="B0B1 B1B2 B2B1 B1B2 B2C2 C2B2"/>
    </vehicle>
    <vehicle id="176" type="bus" depart="266.00">
        <route edges="D2C2 C2B2 B2A2 A2A1"/>
    </vehicle>
    <vehicle id="177" type="truck" depart="267.00">
        <route edges="D2D1 D1D0"/>
    </vehicle>
    <vehicle id="178" type="bus" depart="268.00">
        <route edges="E1E2 E2D2"/>
    </vehicle>
    <vehicle id="179" type="car" depart="269.00">
        <route edges="A1A2 A2B2 B2B1 B1B2 B2A2 A2A1"/>
    </vehicle>
    <vehicle id="180" type="car" depart="270.00">
        <route edges="B1A1 A1A2 A2B2 B2B1 B1A1 A1A0"/>
    </vehicle>
    <vehicle id="181" type="car" depart="271.00">
        <route edges="B1C1 C1C0"/>
    </vehicle>
    <vehicle id="182" type="car" depart="272.00">
        <route edges="D2D1 D1D0"/>
    </vehicle>
    <vehicle id="183" type="car" depart="273.00">
        <route edges="C0B0 B0A0 A0A1 A1A2 A2B2 B2A2 A2A1"/>
    </vehicle>
    <vehicle id="184" type="bus" depart="274.00">
        <route edges="B1C1 C1C0"/>
    </vehicle>
    <vehicle id="185" type="truck" depart="275.00">
        <route edges="A1A0 A0B0 B0C0"/>
    </vehicle>
    <vehicle id="186" type="bus" depart="276.00">
        <route edges="A1A0 A0B0 B0C0 C0B0 B0B1 B1C1"/>
    </vehicle>
    <vehicle id="187" type="bus" depart="277.00">
        <route edges="E1E0 E0D0 D0D1"/>
    </vehicle>
    <vehicle id="188" type="car" depart="278.00">
        <route edges="E1D1 D1E1 E1E0"/>
    </vehicle>
    <vehicle id="189" type="car" depart="279.00">
        <route edges="A1B1 B1B2 B2B1 B1C1 C1C2"/>
    </vehicle>
    <vehicle id="190" type="car" depart="280.00">
        <route edges="B2A2 A2A1 A1B1 B1C1"/>
    </vehicle>
    <vehicle id="191" type="bus" depart="281.00">
        <route edges="D0D1 D1C1 C1B1 B1B2"/>
    </vehicle>
    <vehicle id="192" type="car" depart="282.00">
        <route edges="A0B0 B0B1"/>
    </vehicle>
    <vehicle id="193" type="truck" depart="283.00">
        <route edges="B1C1 C1C0"/>
    </vehicle>
    <vehicle id="194" type="bus" depart="284.00">
        <route edges="A1A2 A2B2 B2B1 B1B0 B0C0 C0B0 B0B1"/>
    </vehicle>
    <vehicle id="195" type="car" depart="285.00">
        <route edges="E2D2 D2C2 C2C1 C1D1 D1D2 D2E2 E2E1"/>
    </vehicle>
    <vehicle id="196" type="car" depart="286.00">
        <route edges="D1E1 E1D1 D1D2"/>
    </vehicle>
    <vehicle id="197" type="bus" depart="287.00">
        <route edges="C1C2 C2D2 D2E2 E2E1 E1D1 D1C1 C1C0"/>
    </vehicle>
    <vehicle id="198" type="bus" depart="288.00">
        <route edges="A2B2 B2C2 C2D2 D2E2 E2E1"/>
    </vehicle>
    <vehicle id="199" type="car" depart="289.00">
        <route edges="A1A0 A0B0 B0C0"/>
    </vehicle>
    <vehicle id="200" type="truck" depart="290.00">
        <route edges="E1E2 E2D2 D2D1 D1E1 E1E0 E0D0"/>
    </vehicle>
    <vehicle id="201" type="car" depart="291.00">
        <route edges="E1D1 D1E1 E1E0"/>
    </vehicle>
    <vehicle id="202" type="car" depart="292.00">
        <route edges="B1A1 A1B1"/>
    </vehicle>
    <vehicle id="203" type="bus" depart="293.00">
        <route edges="A1B1 B1B2 B2B1 B1C1 C1C2"/>
    </vehicle>
    <vehicle id="204" type="bus" depart="294.00">
        <route edges="D1C1 C1B1 B1C1 C1D1 D1C1"/>
    </vehicle>
    <vehicle id="205" type="car" depart="295.00">
        <route edges="D0C0 C0B0 B0C0 C0D0 D0C0"/>
    </vehicle>
    <vehicle id="206" type="car" depart="296.00">
        <route edges="B0C0 C0B0 B0A0 A0A1"/>
    </vehicle>
    <vehicle id="207" type="bus" depart="297.00">
        <route edges="B2C2 C2D2 D2E2 E2E1 E1E0 E0D0"/>
    </vehicle>
    <vehicle id="208" type="bus" depart="298.00">
        <route edges="E1E0 E0D0 D0D1"/>
    </vehicle>
    <vehicle id="209" type="car" depart="299.00">
        <route edges="A1B1 B1B2 B2B1 B1C1 C1C2"/>
    </vehicle>
    <vehicle id="210" type="car" depart="300.00">
        <route edges="A0B0 B0C0 C0B0 B0B1 B1C1 C1C2 C2B2"/>
    </vehicle>
    <vehicle id="211" type="car" depart="301.00">
        <route edges="C1D1 D1D0 D0C0"/>
    </vehicle>
    <vehicle id="212" type="car" depart="302.00">
        <route edges="B0B1 B1C1 C1C2 C2D2 D2D1 D1D2 D2E2"/>
    </vehicle>
    <vehicle id="213" type="car" depart="303.00">
        <route edges="C0D0 D0C0 C0C1 C1C0 C0C1"/>
    </vehicle>
    <vehicle id="214" type="bus" depart="304.00">
        <route edges="B2A2 A2A1 A1A0"/>
    </vehicle>
    <vehicle id="215" type="car" depart="305.00">
        <route edges="C2C1 C1B1 B1B2 B2C2 C2D2 D2E2 E2E1"/>
    </vehicle>
    <vehicle id="216" type="truck" depart="306.00">
        <route edges="D1E1 E1D1 D1D2"/>
    </vehicle>
    <vehicle id="217" type="car" depart="307.00">
        <route edges="E0E1 E1E2 E2D2 D2D1"/>
    </vehicle>
    <vehicle id="218" type="bus" depart="308.00">
        <route edges="E1D1 D1D0"/>
    </vehicle>
    <vehicle id="219" type="car" depart="309.00">
        <route edges="A0B0 B0A0"/>
    </vehicle>
    <vehicle id="220" type="car" depart="310.00">
        <route edges="D0E0 E0E1 E1E2"/>
    </vehicle>
    <vehicle id="221" type="truck" depart="311.00">
        <route edges="C1C2 C2D2 D2C2 C2B2 B2B1 B1B0"/>
    </vehicle>
    <vehicle id="222" type="car" depart="312.00">
        <route edges="D1D2 D2C2"/>
    </vehicle>
    <vehicle id="223" type="car" depart="313.00">
        <route edges="E1E2 E2D2 D2D1 D1E1 E1E0 E0D0"/>
    </vehicle>
    <vehicle id="224" type="car" depart="314.00">
        <route edges="D2C2 C2C1 C1C2 C2D2"/>
    </vehicle>
    <vehicle id="225" type="car" depart="315.00">
        <route edges="D1D0 D0C0 C0B0"/>
    </vehicle>
    <vehicle id="226" type="car" depart="316.00">
        <route edges="C2B2 B2A2"/>
    </vehicle>
    <vehicle id="227" type="car" depart="317.00">
        <route edges="B1A1 A1B1"/>
    </vehicle>
    <vehicle id="228" type="car" depart="318.00">
        <route edges="E1D1 D1D0"/>
    </vehicle>
    <vehicle id="229" type="bus" depart="319.00">
        <route edges="D1D0 D0D1 D1D2 D2C2 C2B2 B2B1 B1C1"/>
    </vehicle>
    <vehicle id="230" type="bus" depart="320.00">
        <route edges="B2C2 C2D2 D2E2 E2E1 E1E0 E0D0"/>
    </vehicle>
    <vehicle id="231" type="bus" depart="321.00">
        <route edges="B1A1 A1A2 A2B2 B2B1 B1A1 A1A0"/>
    </vehicle>
    <vehicle id="232" type="car" depart="322.00">
        <route edges="C2C1 C1B1 B1B2 B2C2 C2D2 D2E2 E2E1"/>
    </vehicle>
    <vehicle id="233" type="car" depart="323.00">
        <route edges="C0C1 C1D1"/>
    </vehicle>
    <vehicle id="234" type="bus" depart="324.00">
        <route edges="A1A0 A0B0 B0C0"/>
    </vehicle>
    <vehicle id="235" type="car" depart="325.00">
        <route edges="B2A2 A2A1 A1A0"/>
    </vehicle>
    <vehicle id="236" type="car" depart="326.00">
        <route edges="D1C1 C1B1 B1C1 C1D1 D1C1"/>
    </vehicle>
    <vehicle id="237" type="car" depart="327.00">
        <route edges="B0B1 B1C1 C1D1 D1C1 C1B1"/>
    </vehicle>
    <vehicle id="238" type="car" depart="328.00">
        <route edges="D2D1 D1E1 E1E2 E2D2 D2D1 D1E1 E1E0"/>
    </vehicle>
    <vehicle id="239" type="bus" depart="329.00">
        <route edges="C2C1 C1C0 C0D0 D0D1 D1D2 D2C2 C2B2"/>
    </vehicle>
    <vehicle id="240" type="car" depart="330.00">
        <route edges="D0D1 D1E1 E1E0 E0D0 D0C0 C0D0 D0E0"/>
    </vehicle>
    <vehicle id="241" type="car" depart="331.00">
        <route edges="D1D0 D0C0 C0B0"/>
    </vehicle>
    <vehicle id="242" type="car" depart="332.00">
        <route edges="D1E1 E1D1"/>
    </vehicle>
    <vehicle id="243" type="car" depart="333.00">
        <route edges="E2E1 E1E0 E0D0 D0D1 D1D2"/>
    </vehicle>
    <vehicle id="244" type="bus" depart="334.00">
        <route edges="E1E0 E0D0 D0D1"/>
    </vehicle>
    <vehicle id="245" type="car" depart="335.00">
        <route edges="A2A1 A1A2 A2B2 B2A2"/>
    </vehicle>
    <vehicle id="246" type="car" depart="336.00">
        <route edges="C0D0 D0C0 C0C1 C1C0 C0C1"/>
    </vehicle>
    <vehicle id="247" type="car" depart="337.00">
        <route edges="E2E1 E1D1"/>
    </vehicle>
    <vehicle id="248" type="car" depart="338.00">
        <route edges="C2C1 C1C0 C0D0 D0D1 D1D2 D2C2 C2B2"/>
    </vehicle>
    <vehicle id="249" type="car" depart="339.00">
        <route edges="C2D2 D2C2"/>
    </vehicle>
    <vehicle id="250" type="car" depart="340.00">
        <route edges="B1B2 B2A2 A2A1 A1B1 B1C1 C1D1 D1E1"/>
    </vehicle>
    <vehicle id="251" type="truck" depart="341.00">
        <route edges="A0B0 B0B1"/>
    </vehicle>
    <vehicle id="252" type="car" depart="342.00">
        <route edges="D2C2 C2C1 C1C2 C2D2"/>
    </vehicle>
    <vehicle id="253" type="bus" depart="343.00">
        <route edges="B0A0 A0A1 A1A2 A2B2"/>
    </vehicle>
    <vehicle id="254" type="car" depart="344.00">
        <route edges="B1B0 B0A0 A0A1 A1A2 A2B2 B2C2 C2D2"/>
    </vehicle>
    <vehicle id="255" type="car" depart="345.00">
        <route edges="E0D0 D0C0 C0B0 B0C0"/>
    </vehicle>
    <vehicle id="256" type="truck" depart="346.00">
        <route edges="B2C2 C2D2 D2E2 E2E1 E1E0 E0D0"/>
    </vehicle>
    <vehicle id="257" type="car" depart="347.00">
        <route edges="D1D2 D2C2"/>
    </vehicle>
    <vehicle id="258" type="car" depart="348.00">
        <route edges="B1B2 B2A2 A2A1 A1B1 B1C1 C1D1 D1E1"/>
    </vehicle>
    <vehicle id="259" type="truck" depart="349.00">
        <route edges="C1C2 C2D2 D2D1 D1D0 D0C0 C0B0 B0C0"/>
    </vehicle>
    <vehicle id="260" type="car" depart="350.00">
        <route edges="E1E0 E0D0 D0D1"/>
    </vehicle>
    <vehicle id="261" type="car" depart="351.00">
        <route edges="A1A0 A0B0 B0C0"/>
    </vehicle>
    <vehicle id="262" type="bus" depart="352.00">
        <route edges="C1D1 D1D0 D0C0"/>
    </vehicle>
    <vehicle id="263" type="car" depart="353.00">
        <route edges="B0C0 C0B0 B0A0 A0A1"/>
    </vehicle>
    <vehicle id="264" type="car" depart="354.00">
        <route edges="E0D0 D0C0 C0B0 B0C0"/>
    </vehicle>
    <vehicle id="265" type="car" depart="355.00">
        <route edges="D0C0 C0C1 C1C2"/>
    </vehicle>
    <vehicle id="266" type="car" depart="356.00">