<?xml version="1.0" encoding="UTF-8"?>

<!-- generated on 2025-07-26 16:49:54 by Eclipse SUMO netgenerate Version v1_24_0+0001-d4ffedda859
<netgenerateConfiguration xmlns:xsi="http://www.w3.org/2001/XMLSchema-instance" xsi:noNamespaceSchemaLocation="http://sumo.dlr.de/xsd/netgenerateConfiguration.xsd">

    <grid_network>
        <grid value="true"/>
        <grid.x-number value="5"/>
        <grid.y-number value="3"/>
        <grid.x-length value="75"/>
        <grid.y-length value="75"/>
    </grid_network>

    <output>
        <output-file value="grid3x3.net.xml"/>
    </output>

    <building_defaults>
        <default.lanenumber value="2"/>
    </building_defaults>

    <tls_building>
        <tls.guess value="true"/>
    </tls_building>

</netgenerateConfiguration>
-->

<net version="1.20" junctionCornerDetail="5" limitTurnSpeed="5.50" xmlns:xsi="http://www.w3.org/2001/XMLSchema-instance" xsi:noNamespaceSchemaLocation="http://sumo.dlr.de/xsd/net_file.xsd">

    <location netOffset="0.00,0.00" convBoundary="0.00,0.00,300.00,150.00" origBoundary="0.00,0.00,300.00,150.00" projParameter="!"/>

    <edge id=":A0_0" function="internal">
        <lane id=":A0_0_0" index="0" speed="8.96" length="18.06" shape="-4.80,6.40 -4.10,1.50 -2.00,-2.00 1.50,-4.10 6.40,-4.80"/>
        <lane id=":A0_0_1" index="1" speed="7.66" length="12.90" shape="-1.60,6.40 -1.10,2.90 0.40,0.40 2.90,-1.10 6.40,-1.60"/>
    </edge>
    <edge id=":A0_2" function="internal">
        <lane id=":A0_2_0" index="0" speed="3.90" length="2.58" shape="6.40,4.80 5.70,4.90 5.20,5.20 4.90,5.70 4.80,6.40"/>
        <lane id=":A0_2_1" index="1" speed="6.08" length="7.74" shape="6.40,1.60 4.30,1.90 2.80,2.80 1.90,4.30 1.60,6.40"/>
    </edge>
    <edge id=":A1_0" function="internal">
        <lane id=":A1_0_0" index="0" speed="13.89" length="20.80" shape="-4.80,85.40 -4.80,64.60"/>
        <lane id=":A1_0_1" index="1" speed="13.89" length="20.80" shape="-1.60,85.40 -1.60,64.60"/>
    </edge>
    <edge id=":A1_2" function="internal">
        <lane id=":A1_2_0" index="0" speed="9.26" length="5.01" shape="-1.60,85.40 -0.89,80.44"/>
    </edge>
    <edge id=":A1_3" function="internal">
        <lane id=":A1_3_0" index="0" speed="3.65" length="1.44" shape="-1.60,85.40 -0.80,84.20"/>
    </edge>
    <edge id=":A1_12" function="internal">
        <lane id=":A1_12_0" index="0" speed="9.26" length="14.34" shape="-0.89,80.44 -0.85,80.15 1.40,76.40 5.15,74.15 10.40,73.40"/>
    </edge>
    <edge id=":A1_13" function="internal">
        <lane id=":A1_13_0" index="0" speed="3.65" length="3.23" shape="-0.80,84.20 0.00,83.80 0.80,84.20 1.60,85.40"/>
    </edge>
    <edge id=":A1_4" function="internal">
        <lane id=":A1_4_0" index="0" speed="6.51" length="9.03" shape="10.40,79.80 7.95,80.15 6.20,81.20 5.15,82.95 4.80,85.40"/>
        <lane id=":A1_4_1" index="1" speed="8.00" length="14.19" shape="10.40,76.60 6.55,77.15 3.80,78.80 2.15,81.55 1.60,85.40"/>
    </edge>
    <edge id=":A1_6" function="internal">
        <lane id=":A1_6_0" index="0" speed="9.26" length="19.35" shape="10.40,76.60 5.15,75.85 1.40,73.60 -0.85,69.85 -1.60,64.60"/>
    </edge>
    <edge id=":A1_7" function="internal">
        <lane id=":A1_7_0" index="0" speed="3.65" length="2.34" shape="10.40,76.60 9.20,75.80 8.80,75.00"/>
    </edge>
    <edge id=":A1_14" function="internal">
        <lane id=":A1_14_0" index="0" speed="3.65" length="2.34" shape="8.80,75.00 9.20,74.20 10.40,73.40"/>
    </edge>
    <edge id=":A1_8" function="internal">
        <lane id=":A1_8_0" index="0" speed="6.51" length="9.03" shape="4.80,64.60 5.15,67.05 6.20,68.80 7.95,69.85 10.40,70.20"/>
    </edge>
    <edge id=":A1_9" function="internal">
        <lane id=":A1_9_0" index="0" speed="13.89" length="20.80" shape="4.80,64.60 4.80,85.40"/>
        <lane id=":A1_9_1" index="1" speed="13.89" length="20.80" shape="1.60,64.60 1.60,85.40"/>
    </edge>
    <edge id=":A1_11" function="internal">
        <lane id=":A1_11_0" index="0" speed="3.65" length="1.44" shape="1.60,64.60 0.80,65.80"/>
    </edge>
    <edge id=":A1_15" function="internal">
        <lane id=":A1_15_0" index="0" speed="3.65" length="3.23" shape="0.80,65.80 0.00,66.20 -0.80,65.80 -1.60,64.60"/>
    </edge>
    <edge id=":A2_0" function="internal">
        <lane id=":A2_0_0" index="0" speed="8.96" length="18.06" shape="6.40,154.80 1.50,154.10 -2.00,152.00 -4.10,148.50 -4.80,143.60"/>
        <lane id=":A2_0_1" index="1" speed="7.66" length="12.90" shape="6.40,151.60 2.90,151.10 0.40,149.60 -1.10,147.10 -1.60,143.60"/>
    </edge>
    <edge id=":A2_2" function="internal">
        <lane id=":A2_2_0" index="0" speed="3.90" length="2.58" shape="4.80,143.60 4.90,144.30 5.20,144.80 5.70,145.10 6.40,145.20"/>
        <lane id=":A2_2_1" index="1" speed="6.08" length="7.74" shape="1.60,143.60 1.90,145.70 2.80,147.20 4.30,148.10 6.40,148.40"/>
    </edge>
    <edge id=":B0_0" function="internal">
        <lane id=":B0_0_0" index="0" speed="6.51" length="9.03" shape="70.20,10.40 69.85,7.95 68.80,6.20 67.05,5.15 64.60,4.80"/>
        <lane id=":B0_0_1" index="1" speed="8.00" length="14.19" shape="73.40,10.40 72.85,6.55 71.20,3.80 68.45,2.15 64.60,1.60"/>
    </edge>
    <edge id=":B0_2" function="internal">
        <lane id=":B0_2_0" index="0" speed="9.26" length="19.35" shape="73.40,10.40 74.15,5.15 76.40,1.40 80.15,-0.85 85.40,-1.60"/>
    </edge>
    <edge id=":B0_3" function="internal">
        <lane id=":B0_3_0" index="0" speed="3.65" length="2.34" shape="73.40,10.40 74.20,9.20 75.00,8.80"/>
    </edge>
    <edge id=":B0_12" function="internal">
        <lane id=":B0_12_0" index="0" speed="3.65" length="2.34" shape="75.00,8.80 75.80,9.20 76.60,10.40"/>
    </edge>
    <edge id=":B0_4" function="internal">
        <lane id=":B0_4_0" index="0" speed="6.51" length="9.03" shape="85.40,4.80 82.95,5.15 81.20,6.20 80.15,7.95 79.80,10.40"/>
    </edge>
    <edge id=":B0_5" function="internal">
        <lane id=":B0_5_0" index="0" speed="13.89" length="20.80" shape="85.40,4.80 64.60,4.80"/>
        <lane id=":B0_5_1" index="1" speed="13.89" length="20.80" shape="85.40,1.60 64.60,1.60"/>
    </edge>
    <edge id=":B0_7" function="internal">
        <lane id=":B0_7_0" index="0" speed="3.65" length="1.44" shape="85.40,1.60 84.20,0.80"/>
    </edge>
    <edge id=":B0_13" function="internal">
        <lane id=":B0_13_0" index="0" speed="3.65" length="3.23" shape="84.20,0.80 83.80,0.00 84.20,-0.80 85.40,-1.60"/>
    </edge>
    <edge id=":B0_8" function="internal">
        <lane id=":B0_8_0" index="0" speed="13.89" length="20.80" shape="64.60,-4.80 85.40,-4.80"/>
        <lane id=":B0_8_1" index="1" speed="13.89" length="20.80" shape="64.60,-1.60 85.40,-1.60"/>
    </edge>
    <edge id=":B0_10" function="internal">
        <lane id=":B0_10_0" index="0" speed="9.26" length="5.01" shape="64.60,-1.60 69.56,-0.89"/>
    </edge>
    <edge id=":B0_11" function="internal">
        <lane id=":B0_11_0" index="0" speed="3.65" length="1.44" shape="64.60,-1.60 65.80,-0.80"/>
    </edge>
    <edge id=":B0_14" function="internal">
        <lane id=":B0_14_0" index="0" speed="9.26" length="14.34" shape="69.56,-0.89 69.85,-0.85 73.60,1.40 75.85,5.15 76.60,10.40"/>
    </edge>
    <edge id=":B0_15" function="internal">
        <lane id=":B0_15_0" index="0" speed="3.65" length="3.23" shape="65.80,-0.80 66.20,0.00 65.80,0.80 64.60,1.60"/>
    </edge>
    <edge id=":B1_0" function="internal">
        <lane id=":B1_0_0" index="0" speed="6.51" length="9.03" shape="70.20,85.40 69.85,82.95 68.80,81.20 67.05,80.15 64.60,79.80"/>
    </edge>
    <edge id=":B1_1" function="internal">
        <lane id=":B1_1_0" index="0" speed="13.89" length="20.80" shape="70.20,85.40 70.20,64.60"/>
        <lane id=":B1_1_1" index="1" speed="13.89" length="20.80" shape="73.40,85.40 73.40,64.60"/>
    </edge>
    <edge id=":B1_3" function="internal">
        <lane id=":B1_3_0" index="0" speed="9.26" length="5.01" shape="73.40,85.40 74.11,80.44"/>
    </edge>
    <edge id=":B1_4" function="internal">
        <lane id=":B1_4_0" index="0" speed="3.65" length="1.44" shape="73.40,85.40 74.20,84.20"/>
    </edge>
    <edge id=":B1_20" function="internal">
        <lane id=":B1_20_0" index="0" speed="9.26" length="14.34" shape="74.11,80.44 74.15,80.15 76.40,76.40 80.15,74.15 85.40,73.40"/>
    </edge>
    <edge id=":B1_21" function="internal">
        <lane id=":B1_21_0" index="0" speed="3.65" length="3.23" shape="74.20,84.20 75.00,83.80 75.80,84.20 76.60,85.40"/>
    </edge>
    <edge id=":B1_5" function="internal">
        <lane id=":B1_5_0" index="0" speed="6.51" length="9.03" shape="85.40,79.80 82.95,80.15 81.20,81.20 80.15,82.95 79.80,85.40"/>
    </edge>
    <edge id=":B1_6" function="internal">
        <lane id=":B1_6_0" index="0" speed="13.89" length="20.80" shape="85.40,79.80 64.60,79.80"/>
        <lane id=":B1_6_1" index="1" speed="13.89" length="20.80" shape="85.40,76.60 64.60,76.60"/>
    </edge>
    <edge id=":B1_8" function="internal">
        <lane id=":B1_8_0" index="0" speed="9.26" length="5.01" shape="85.40,76.60 80.44,75.89"/>
    </edge>
    <edge id=":B1_9" function="internal">
        <lane id=":B1_9_0" index="0" speed="3.65" length="1.44" shape="85.40,76.60 84.20,75.80"/>
    </edge>
    <edge id=":B1_22" function="internal">
        <lane id=":B1_22_0" index="0" speed="9.26" length="14.34" shape="80.44,75.89 80.15,75.85 76.40,73.60 74.15,69.85 73.40,64.60"/>
    </edge>
    <edge id=":B1_23" function="internal">
        <lane id=":B1_23_0" index="0" speed="3.65" length="3.23" shape="84.20,75.80 83.80,75.00 84.20,74.20 85.40,73.40"/>
    </edge>
    <edge id=":B1_10" function="internal">
        <lane id=":B1_10_0" index="0" speed="6.51" length="9.03" shape="79.80,64.60 80.15,67.05 81.20,68.80 82.95,69.85 85.40,70.20"/>
    </edge>
    <edge id=":B1_11" function="internal">
        <lane id=":B1_11_0" index="0" speed="13.89" length="20.80" shape="79.80,64.60 79.80,85.40"/>
        <lane id=":B1_11_1" index="1" speed="13.89" length="20.80" shape="76.60,64.60 76.60,85.40"/>
    </edge>
    <edge id=":B1_13" function="internal">
        <lane id=":B1_13_0" index="0" speed="9.26" length="5.01" shape="76.60,64.60 75.89,69.56"/>
    </edge>
    <edge id=":B1_14" function="internal">
        <lane id=":B1_14_0" index="0" speed="3.65" length="1.44" shape="76.60,64.60 75.80,65.80"/>
    </edge>
    <edge id=":B1_24" function="internal">
        <lane id=":B1_24_0" index="0" speed="9.26" length="14.34" shape="75.89,69.56 75.85,69.85 73.60,73.60 69.85,75.85 64.60,76.60"/>
    </edge>
    <edge id=":B1_25" function="internal">
        <lane id=":B1_25_0" index="0" speed="3.65" length="3.23" shape="75.80,65.80 75.00,66.20 74.20,65.80 73.40,64.60"/>
    </edge>
    <edge id=":B1_15" function="internal">
        <lane id=":B1_15_0" index="0" speed="6.51" length="9.03" shape="64.60,70.20 67.05,69.85 68.80,68.80 69.85,67.05 70.20,64.60"/>
    </edge>
    <edge id=":B1_16" function="internal">
        <lane id=":B1_16_0" index="0" speed="13.89" length="20.80" shape="64.60,70.20 85.40,70.20"/>
        <lane id=":B1_16_1" index="1" speed="13.89" length="20.80" shape="64.60,73.40 85.40,73.40"/>
    </edge>
    <edge id=":B1_18" function="internal">
        <lane id=":B1_18_0" index="0" speed="9.26" length="5.01" shape="64.60,73.40 69.56,74.11"/>
    </edge>
    <edge id=":B1_19" function="internal">
        <lane id=":B1_19_0" index="0" speed="3.65" length="1.44" shape="64.60,73.40 65.80,74.20"/>
    </edge>
    <edge id=":B1_26" function="internal">
        <lane id=":B1_26_0" index="0" speed="9.26" length="14.34" shape="69.56,74.11 69.85,74.15 73.60,76.40 75.85,80.15 76.60,85.40"/>
    </edge>
    <edge id=":B1_27" function="internal">
        <lane id=":B1_27_0" index="0" speed="3.65" length="3.23" shape="65.80,74.20 66.20,75.00 65.80,75.80 64.60,76.60"/>
    </edge>
    <edge id=":B2_0" function="internal">
        <lane id=":B2_0_0" index="0" speed="13.89" length="20.80" shape="85.40,154.80 64.60,154.80"/>
        <lane id=":B2_0_1" index="1" speed="13.89" length="20.80" shape="85.40,151.60 64.60,151.60"/>
    </edge>
    <edge id=":B2_2" function="internal">
        <lane id=":B2_2_0" index="0" speed="9.26" length="5.01" shape="85.40,151.60 80.44,150.89"/>
    </edge>
    <edge id=":B2_3" function="internal">
        <lane id=":B2_3_0" index="0" speed="3.65" length="1.44" shape="85.40,151.60 84.20,150.80"/>
    </edge>
    <edge id=":B2_12" function="internal">
        <lane id=":B2_12_0" index="0" speed="9.26" length="14.34" shape="80.44,150.89 80.15,150.85 76.40,148.60 74.15,144.85 73.40,139.60"/>
    </edge>
    <edge id=":B2_13" function="internal">
        <lane id=":B2_13_0" index="0" speed="3.65" length="3.23" shape="84.20,150.80 83.80,150.00 84.20,149.20 85.40,148.40"/>
    </edge>
    <edge id=":B2_4" function="internal">
        <lane id=":B2_4_0" index="0" speed="6.51" length="9.03" shape="79.80,139.60 80.15,142.05 81.20,143.80 82.95,144.85 85.40,145.20"/>
        <lane id=":B2_4_1" index="1" speed="8.00" length="14.19" shape="76.60,139.60 77.15,143.45 78.80,146.20 81.55,147.85 85.40,148.40"/>
    </edge>
    <edge id=":B2_6" function="internal">
        <lane id=":B2_6_0" index="0" speed="9.26" length="19.35" shape="76.60,139.60 75.85,144.85 73.60,148.60 69.85,150.85 64.60,151.60"/>
    </edge>
    <edge id=":B2_7" function="internal">
        <lane id=":B2_7_0" index="0" speed="3.65" length="2.34" shape="76.60,139.60 75.80,140.80 75.00,141.20"/>
    </edge>
    <edge id=":B2_14" function="internal">
        <lane id=":B2_14_0" index="0" speed="3.65" length="2.34" shape="75.00,141.20 74.20,140.80 73.40,139.60"/>
    </edge>
    <edge id=":B2_8" function="internal">
        <lane id=":B2_8_0" index="0" speed="6.51" length="9.03" shape="64.60,145.20 67.05,144.85 68.80,143.80 69.85,142.05 70.20,139.60"/>
    </edge>
    <edge id=":B2_9" function="internal">
        <lane id=":B2_9_0" index="0" speed="13.89" length="20.80" shape="64.60,145.20 85.40,145.20"/>
        <lane id=":B2_9_1" index="1" speed="13.89" length="20.80" shape="64.60,148.40 85.40,148.40"/>
    </edge>
    <edge id=":B2_11" function="internal">
        <lane id=":B2_11_0" index="0" speed="3.65" length="1.44" shape="64.60,148.40 65.80,149.20"/>
    </edge>
    <edge id=":B2_15" function="internal">
        <lane id=":B2_15_0" index="0" speed="3.65" length="3.23" shape="65.80,149.20 66.20,150.00 65.80,150.80 64.60,151.60"/>
    </edge>
    <edge id=":C0_0" function="internal">
        <lane id=":C0_0_0" index="0" speed="6.51" length="9.03" shape="145.20,10.40 144.85,7.95 143.80,6.20 142.05,5.15 139.60,4.80"/>
        <lane id=":C0_0_1" index="1" speed="8.00" length="14.19" shape="148.40,10.40 147.85,6.55 146.20,3.80 143.45,2.15 139.60,1.60"/>
    </edge>
    <edge id=":C0_2" function="internal">
        <lane id=":C0_2_0" index="0" speed="9.26" length="19.35" shape="148.40,10.40 149.15,5.15 151.40,1.40 155.15,-0.85 160.40,-1.60"/>
    </edge>
    <edge id=":C0_3" function="internal">
        <lane id=":C0_3_0" index="0" speed="3.65" length="2.34" shape="148.40,10.40 149.20,9.20 150.00,8.80"/>
    </edge>
    <edge id=":C0_12" function="internal">
        <lane id=":C0_12_0" index="0" speed="3.65" length="2.34" shape="150.00,8.80 150.80,9.20 151.60,10.40"/>
    </edge>
    <edge id=":C0_4" function="internal">
        <lane id=":C0_4_0" index="0" speed="6.51" length="9.03" shape="160.40,4.80 157.95,5.15 156.20,6.20 155.15,7.95 154.80,10.40"/>
    </edge>
    <edge id=":C0_5" function="internal">
        <lane id=":C0_5_0" index="0" speed="13.89" length="20.80" shape="160.40,4.80 139.60,4.80"/>
        <lane id=":C0_5_1" index="1" speed="13.89" length="20.80" shape="160.40,1.60 139.60,1.60"/>
    </edge>
    <edge id=":C0_7" function="internal">
        <lane id=":C0_7_0" index="0" speed="3.65" length="1.44" shape="160.40,1.60 159.20,0.80"/>
    </edge>
    <edge id=":C0_13" function="internal">
        <lane id=":C0_13_0" index="0" speed="3.65" length="3.23" shape="159.20,0.80 158.80,0.00 159.20,-0.80 160.40,-1.60"/>
    </edge>
    <edge id=":C0_8" function="internal">
        <lane id=":C0_8_0" index="0" speed="13.89" length="20.80" shape="139.60,-4.80 160.40,-4.80"/>
        <lane id=":C0_8_1" index="1" speed="13.89" length="20.80" shape="139.60,-1.60 160.40,-1.60"/>
    </edge>
    <edge id=":C0_10" function="internal">
        <lane id=":C0_10_0" index="0" speed="9.26" length="5.01" shape="139.60,-1.60 144.56,-0.89"/>
    </edge>
    <edge id=":C0_11" function="internal">
        <lane id=":C0_11_0" index="0" speed="3.65" length="1.44" shape="139.60,-1.60 140.80,-0.80"/>
    </edge>
    <edge id=":C0_14" function="internal">
        <lane id=":C0_14_0" index="0" speed="9.26" length="14.34" shape="144.56,-0.89 144.85,-0.85 148.60,1.40 150.85,5.15 151.60,10.40"/>
    </edge>
    <edge id=":C0_15" function="internal">
        <lane id=":C0_15_0" index="0" speed="3.65" length="3.23" shape="140.80,-0.80 141.20,0.00 140.80,0.80 139.60,1.60"/>
    </edge>
    <edge id=":C1_0" function="internal">
        <lane id=":C1_0_0" index="0" speed="6.51" length="9.03" shape="145.20,85.40 144.85,82.95 143.80,81.20 142.05,80.15 139.60,79.80"/>
    </edge>
    <edge id=":C1_1" function="internal">
        <lane id=":C1_1_0" index="0" speed="13.89" length="20.80" shape="145.20,85.40 145.20,64.60"/>
        <lane id=":C1_1_1" index="1" speed="13.89" length="20.80" shape="148.40,85.40 148.40,64.60"/>
    </edge>
    <edge id=":C1_3" function="internal">
        <lane id=":C1_3_0" index="0" speed="9.26" length="5.01" shape="148.40,85.40 149.11,80.44"/>
    </edge>
    <edge id=":C1_4" function="internal">
        <lane id=":C1_4_0" index="0" speed="3.65" length="1.44" shape="148.40,85.40 149.20,84.20"/>
    </edge>
    <edge id=":C1_20" function="internal">
        <lane id=":C1_20_0" index="0" speed="9.26" length="14.34" shape="149.11,80.44 149.15,80.15 151.40,76.40 155.15,74.15 160.40,73.40"/>
    </edge>
    <edge id=":C1_21" function="internal">
        <lane id=":C1_21_0" index="0" speed="3.65" length="3.23" shape="149.20,84.20 150.00,83.80 150.80,84.20 151.60,85.40"/>
    </edge>
    <edge id=":C1_5" function="internal">
        <lane id=":C1_5_0" index="0" speed="6.51" length="9.03" shape="160.40,79.80 157.95,80.15 156.20,81.20 155.15,82.95 154.80,85.40"/>
    </edge>
    <edge id=":C1_6" function="internal">
        <lane id=":C1_6_0" index="0" speed="13.89" length="20.80" shape="160.40,79.80 139.60,79.80"/>
        <lane id=":C1_6_1" index="1" speed="13.89" length="20.80" shape="160.40,76.60 139.60,76.60"/>
    </edge>
    <edge id=":C1_8" function="internal">
        <lane id=":C1_8_0" index="0" speed="9.26" length="5.01" shape="160.40,76.60 155.44,75.89"/>
    </edge>
    <edge id=":C1_9" function="internal">
        <lane id=":C1_9_0" index="0" speed="3.65" length="1.44" shape="160.40,76.60 159.20,75.80"/>
    </edge>
    <edge id=":C1_22" function="internal">
        <lane id=":C1_22_0" index="0" speed="9.26" length="14.34" shape="155.44,75.89 155.15,75.85 151.40,73.60 149.15,69.85 148.40,64.60"/>
    </edge>
    <edge id=":C1_23" function="internal">
        <lane id=":C1_23_0" index="0" speed="3.65" length="3.23" shape="159.20,75.80 158.80,75.00 159.20,74.20 160.40,73.40"/>
    </edge>
    <edge id=":C1_10" function="internal">
        <lane id=":C1_10_0" index="0" speed="6.51" length="9.03" shape="154.80,64.60 155.15,67.05 156.20,68.80 157.95,69.85 160.40,70.20"/>
    </edge>
    <edge id=":C1_11" function="internal">
        <lane id=":C1_11_0" index="0" speed="13.89" length="20.80" shape="154.80,64.60 154.80,85.40"/>
        <lane id=":C1_11_1" index="1" speed="13.89" length="20.80" shape="151.60,64.60 151.60,85.40"/>
    </edge>
    <edge id=":C1_13" function="internal">
        <lane id=":C1_13_0" index="0" speed="9.26" length="5.01" shape="151.60,64.60 150.89,69.56"/>
    </edge>
    <edge id=":C1_14" function="internal">
        <lane id=":C1_14_0" index="0" speed="3.65" length="1.44" shape="151.60,64.60 150.80,65.80"/>
    </edge>
    <edge id=":C1_24" function="internal">
        <lane id=":C1_24_0" index="0" speed="9.26" length="14.34" shape="150.89,69.56 150.85,69.85 148.60,73.60 144.85,75.85 139.60,76.60"/>
    </edge>
    <edge id=":C1_25" function="internal">
        <lane id=":C1_25_0" index="0" speed="3.65" length="3.23" shape="150.80,65.80 150.00,66.20 149.20,65.80 148.40,64.60"/>
    </edge>
    <edge id=":C1_15" function="internal">
        <lane id=":C1_15_0" index="0" speed="6.51" length="9.03" shape="139.60,70.20 142.05,69.85 143.80,68.80 144.85,67.05 145.20,64.60"/>
    </edge>
    <edge id=":C1_16" function="internal">
        <lane id=":C1_16_0" index="0" speed="13.89" length="20.80" shape="139.60,70.20 160.40,70.20"/>
        <lane id=":C1_16_1" index="1" speed="13.89" length="20.80" shape="139.60,73.40 160.40,73.40"/>
    </edge>
    <edge id=":C1_18" function="internal">
        <lane id=":C1_18_0" index="0" speed="9.26" length="5.01" shape="139.60,73.40 144.56,74.11"/>
    </edge>
    <edge id=":C1_19" function="internal">
        <lane id=":C1_19_0" index="0" speed="3.65" length="1.44" shape="139.60,73.40 140.80,74.20"/>
    </edge>
    <edge id=":C1_26" function="internal">
        <lane id=":C1_26_0" index="0" speed="9.26" length="14.34" shape="144.56,74.11 144.85,74.15 148.60,76.40 150.85,80.15 151.60,85.40"/>
    </edge>
    <edge id=":C1_27" function="internal">
        <lane id=":C1_27_0" index="0" speed="3.65" length="3.23" shape="140.80,74.20 141.20,75.00 140.80,75.80 139.60,76.60"/>
    </edge>
    <edge id=":C2_0" function="internal">
        <lane id=":C2_0_0" index="0" speed="13.89" length="20.80" shape="160.40,154.80 139.60,154.80"/>
        <lane id=":C2_0_1" index="1" speed="13.89" length="20.80" shape="160.40,151.60 139.60,151.60"/>
    </edge>
    <edge id=":C2_2" function="internal">
        <lane id=":C2_2_0" index="0" speed="9.26" length="5.01" shape="160.40,151.60 155.44,150.89"/>
    </edge>
    <edge id=":C2_3" function="internal">
        <lane id=":C2_3_0" index="0" speed="3.65" length="1.44" shape="160.40,151.60 159.20,150.80"/>
    </edge>
    <edge id=":C2_12" function="internal">
        <lane id=":C2_12_0" index="0" speed="9.26" length="14.34" shape="155.44,150.89 155.15,150.85 151.40,148.60 149.15,144.85 148.40,139.60"/>
    </edge>
    <edge id=":C2_13" function="internal">
        <lane id=":C2_13_0" index="0" speed="3.65" length="3.23" shape="159.20,150.80 158.80,150.00 159.20,149.20 160.40,148.40"/>
    </edge>
    <edge id=":C2_4" function="internal">
        <lane id=":C2_4_0" index="0" speed="6.51" length="9.03" shape="154.80,139.60 155.15,142.05 156.20,143.80 157.95,144.85 160.40,145.20"/>
        <lane id=":C2_4_1" index="1" speed="8.00" length="14.19" shape="151.60,139.60 152.15,143.45 153.80,146.20 156.55,147.85 160.40,148.40"/>
    </edge>
    <edge id=":C2_6" function="internal">
        <lane id=":C2_6_0" index="0" speed="9.26" length="19.35" shape="151.60,139.60 150.85,144.85 148.60,148.60 144.85,150.85 139.60,151.60"/>
    </edge>
    <edge id=":C2_7" function="internal">
        <lane id=":C2_7_0" index="0" speed="3.65" length="2.34" shape="151.60,139.60 150.80,140.80 150.00,141.20"/>
    </edge>
    <edge id=":C2_14" function="internal">
        <lane id=":C2_14_0" index="0" speed="3.65" length="2.34" shape="150.00,141.20 149.20,140.80 148.40,139.60"/>
    </edge>
    <edge id=":C2_8" function="internal">
        <lane id=":C2_8_0" index="0" speed="6.51" length="9.03" shape="139.60,145.20 142.05,144.85 143.80,143.80 144.85,142.05 145.20,139.60"/>
    </edge>
    <edge id=":C2_9" function="internal">
        <lane id=":C2_9_0" index="0" speed="13.89" length="20.80" shape="139.60,145.20 160.40,145.20"/>
        <lane id=":C2_9_1" index="1" speed="13.89" length="20.80" shape="139.60,148.40 160.40,148.40"/>
    </edge>
    <edge id=":C2_11" function="internal">
        <lane id=":C2_11_0" index="0" speed="3.65" length="1.44" shape="139.60,148.40 140.80,149.20"/>
    </edge>
    <edge id=":C2_15" function="internal">
        <lane id=":C2_15_0" index="0" speed="3.65" length="3.23" shape="140.80,149.20 141.20,150.00 140.80,150.80 139.60,151.60"/>
    </edge>
    <edge id=":D0_0" function="internal">
        <lane id=":D0_0_0" index="0" speed="6.51" length="9.03" shape="220.20,10.40 219.85,7.95 218.80,6.20 217.05,5.15 214.60,4.80"/>
        <lane id=":D0_0_1" index="1" speed="8.00" length="14.19" shape="223.40,10.40 222.85,6.55 221.20,3.80 218.45,2.15 214.60,1.60"/>
    </edge>
    <edge id=":D0_2" function="internal">
        <lane id=":D0_2_0" index="0" speed="9.26" length="19.35" shape="223.40,10.40 224.15,5.15 226.40,1.40 230.15,-0.85 235.40,-1.60"/>
    </edge>
    <edge id=":D0_3" function="internal">
        <lane id=":D0_3_0" index="0" speed="3.65" length="2.34" shape="223.40,10.40 224.20,9.20 225.00,8.80"/>
    </edge>
    <edge id=":D0_12" function="internal">
        <lane id=":D0_12_0" index="0" speed="3.65" length="2.34" shape="225.00,8.80 225.80,9.20 226.60,10.40"/>
    </edge>
    <edge id=":D0_4" function="internal">
        <lane id=":D0_4_0" index="0" speed="6.51" length="9.03" shape="235.40,4.80 232.95,5.15 231.20,6.20 230.15,7.95 229.80,10.40"/>
    </edge>
    <edge id=":D0_5" function="internal">
        <lane id=":D0_5_0" index="0" speed="13.89" length="20.80" shape="235.40,4.80 214.60,4.80"/>
        <lane id=":D0_5_1" index="1" speed="13.89" length="20.80" shape="235.40,1.60 214.60,1.60"/>
    </edge>
    <edge id=":D0_7" function="internal">
        <lane id=":D0_7_0" index="0" speed="3.65" length="1.44" shape="235.40,1.60 234.20,0.80"/>
    </edge>
    <edge id=":D0_13" function="internal">
        <lane id=":D0_13_0" index="0" speed="3.65" length="3.23" shape="234.20,0.80 233.80,0.00 234.20,-0.80 235.40,-1.60"/>
    </edge>
    <edge id=":D0_8" function="internal">
        <lane id=":D0_8_0" index="0" speed="13.89" length="20.80" shape="214.60,-4.80 235.40,-4.80"/>
        <lane id=":D0_8_1" index="1" speed="13.89" length="20.80" shape="214.60,-1.60 235.40,-1.60"/>
    </edge>
    <edge id=":D0_10" function="internal">
        <lane id=":D0_10_0" index="0" speed="9.26" length="5.01" shape="214.60,-1.60 219.56,-0.89"/>
    </edge>
    <edge id=":D0_11" function="internal">
        <lane id=":D0_11_0" index="0" speed="3.65" length="1.44" shape="214.60,-1.60 215.80,-0.80"/>
    </edge>
    <edge id=":D0_14" function="internal">
        <lane id=":D0_14_0" index="0" speed="9.26" length="14.34" shape="219.56,-0.89 219.85,-0.85 223.60,1.40 225.85,5.15 226.60,10.40"/>
    </edge>
    <edge id=":D0_15" function="internal">
        <lane id=":D0_15_0" index="0" speed="3.65" length="3.23" shape="215.80,-0.80 216.20,0.00 215.80,0.80 214.60,1.60"/>
    </edge>
    <edge id=":D1_0" function="internal">
        <lane id=":D1_0_0" index="0" speed="6.51" length="9.03" shape="220.20,85.40 219.85,82.95 218.80,81.20 217.05,80.15 214.60,79.80"/>
    </edge>
    <edge id=":D1_1" function="internal">
        <lane id=":D1_1_0" index="0" speed="13.89" length="20.80" shape="220.20,85.40 220.20,64.60"/>
        <lane id=":D1_1_1" index="1" speed="13.89" length="20.80" shape="223.40,85.40 223.40,64.60"/>
    </edge>
    <edge id=":D1_3" function="internal">
        <lane id=":D1_3_0" index="0" speed="9.26" length="5.01" shape="223.40,85.40 224.11,80.44"/>
    </edge>
    <edge id=":D1_4" function="internal">
        <lane id=":D1_4_0" index="0" speed="3.65" length="1.44" shape="223.40,85.40 224.20,84.20"/>
    </edge>
    <edge id=":D1_20" function="internal">
        <lane id=":D1_20_0" index="0" speed="9.26" length="14.34" shape="224.11,80.44 224.15,80.15 226.40,76.40 230.15,74.15 235.40,73.40"/>
    </edge>
    <edge id=":D1_21" function="internal">
        <lane id=":D1_21_0" index="0" speed="3.65" length="3.23" shape="224.20,84.20 225.00,83.80 225.80,84.20 226.60,85.40"/>
    </edge>
    <edge id=":D1_5" function="internal">
        <lane id=":D1_5_0" index="0" speed="6.51" length="9.03" shape="235.40,79.80 232.95,80.15 231.20,81.20 230.15,82.95 229.80,85.40"/>
    </edge>
    <edge id=":D1_6" function="internal">
        <lane id=":D1_6_0" index="0" speed="13.89" length="20.80" shape="235.40,79.80 214.60,79.80"/>
        <lane id=":D1_6_1" index="1" speed="13.89" length="20.80" shape="235.40,76.60 214.60,76.60"/>
    </edge>
    <edge id=":D1_8" function="internal">
        <lane id=":D1_8_0" index="0" speed="9.26" length="5.01" shape="235.40,76.60 230.44,75.89"/>
    </edge>
    <edge id=":D1_9" function="internal">
        <lane id=":D1_9_0" index="0" speed="3.65" length="1.44" shape="235.40,76.60 234.20,75.80"/>
    </edge>
    <edge id=":D1_22" function="internal">
        <lane id=":D1_22_0" index="0" speed="9.26" length="14.34" shape="230.44,75.89 230.15,75.85 226.40,73.60 224.15,69.85 223.40,64.60"/>
    </edge>
    <edge id=":D1_23" function="internal">
        <lane id=":D1_23_0" index="0" speed="3.65" length="3.23" shape="234.20,75.80 233.80,75.00 234.20,74.20 235.40,73.40"/>
    </edge>
    <edge id=":D1_10" function="internal">
        <lane id=":D1_10_0" index="0" speed="6.51" length="9.03" shape="229.80,64.60 230.15,67.05 231.20,68.80 232.95,69.85 235.40,70.20"/>
    </edge>
    <edge id=":D1_11" function="internal">
        <lane id=":D1_11_0" index="0" speed="13.89" length="20.80" shape="229.80,64.60 229.80,85.40"/>
        <lane id=":D1_11_1" index="1" speed="13.89" length="20.80" shape="226.60,64.60 226.60,85.40"/>
    </edge>
    <edge id=":D1_13" function="internal">
        <lane id=":D1_13_0" index="0" speed="9.26" length="5.01" shape="226.60,64.60 225.89,69.56"/>
    </edge>
    <edge id=":D1_14" function="internal">
        <lane id=":D1_14_0" index="0" speed="3.65" length="1.44" shape="226.60,64.60 225.80,65.80"/>
    </edge>
    <edge id=":D1_24" function="internal">